ID_0_0
     RDKit          2D

 25 27  0  0  0  0  0  0  0  0999 V2000
   -4.5791    0.6455    0.0000 O   0  0  0  0  0  0  0  0  0  0  0  0
   -3.8646    1.0580    0.0000 C   0  0  0  0  0  0  0  0  0  0  0  0
   -3.1501    0.6455    0.0000 C   0  0  0  0  0  0  0  0  0  0  0  0
   -2.4356    1.0580    0.0000 O   0  0  0  0  0  0  0  0  0  0  0  0
   -1.7212    0.6455    0.0000 C   0  0  0  0  0  0  0  0  0  0  0  0
   -1.0067    1.0580    0.0000 C   0  0  0  0  0  0  0  0  0  0  0  0
   -0.2922    0.6455    0.0000 N   0  0  0  0  0  0  0  0  0  0  0  0
    0.4222    1.0580    0.0000 C   0  0  0  0  0  0  0  0  0  0  0  0
    1.1367    0.6455    0.0000 C   0  0  0  0  0  0  0  0  0  0  0  0
    1.1367   -0.1795    0.0000 N   0  0  0  0  0  0  0  0  0  0  0  0
    1.8512   -0.5920    0.0000 C   0  0  0  0  0  0  0  0  0  0  0  0
    1.8512   -1.4170    0.0000 C   0  0  0  0  0  0  0  0  0  0  0  0
    2.5656   -1.8295    0.0000 C   0  0  0  0  0  0  0  0  0  0  0  0
    2.5656   -2.6545    0.0000 C   0  0  0  0  0  0  0  0  0  0  0  0
    1.8512   -3.0670    0.0000 C   0  0  0  0  0  0  0  0  0  0  0  0
    1.1367   -2.6545    0.0000 C   0  0  0  0  0  0  0  0  0  0  0  0
    1.1367   -1.8295    0.0000 C   0  0  0  0  0  0  0  0  0  0  0  0
    2.5656   -0.1795    0.0000 C   0  0  0  0  0  0  0  0  0  0  0  0
    2.5656    0.6455    0.0000 C   0  0  0  0  0  0  0  0  0  0  0  0
    3.2801    1.0580    0.0000 C   0  0  0  0  0  0  0  0  0  0  0  0
    3.9946    0.6455    0.0000 C   0  0  0  0  0  0  0  0  0  0  0  0
    3.9946   -0.1795    0.0000 C   0  0  0  0  0  0  0  0  0  0  0  0
    3.2801   -0.5920    0.0000 C   0  0  0  0  0  0  0  0  0  0  0  0
    0.4222   -0.5920    0.0000 C   0  0  0  0  0  0  0  0  0  0  0  0
   -0.2922   -0.1795    0.0000 C   0  0  0  0  0  0  0  0  0  0  0  0
  1  2  1  0
  2  3  1  0
  3  4  1  0
  4  5  1  0
  5  6  1  0
  6  7  1  0
  7  8  1  0
  8  9  1  0
  9 10  1  0
 10 11  1  0
 11 12  1  0
 12 13  2  0
 13 14  1  0
 14 15  2  0
 15 16  1  0
 16 17  2  0
 12 17  1  0
 11 18  1  0
 18 19  2  0
 19 20  1  0
 20 21  2  0
 21 22  1  0
 22 23  2  0
 18 23  1  0
 10 24  1  0
 24 25  1  0
  7 25  1  0
M  END
>  <MolName>  (1) 
decloxizine

>  <activity>  (1) 


>  <protected_ids>  (1) 
6,7,8,9,10,11,12,13,14,15,16,17,18,19,20,21,22,23,24

>  <ID>  (1) 
ID_0_0

>  <parent_name>  (1) 
None

>  <transformation>  (1) 
None

$$$$
